data/pm_data/pti/frankenstein_00.raw
0,    100.00, 33, 0, 1, 60.00
A Frankenstein network for testing all of the core features of v33 data files
developed by Carleton Coffrin (cjc@lanl.gov) June 2017
1002,'FAV SPOT 02',  345.0000, 2, 101, 201, 301,1.00000000,   0.000000, 1.10000, 0.90000, 1.10000, 0.90000
1005,'FAV PLACE 05',  87.0000, 2, 101, 201, 301,1.00000000,   3.000000, 1.10000, 0.90000, 1.10000, 0.90000
1008,'FAV PLC 08',    87.0000, 2, 101, 201, 301,0.95000000,   0.000000, 1.10000, 0.90000, 1.10000, 0.90000
1009,'FAV PLACE 09',  87.0000, 3, 101, 201, 301,1.00000000,   0.000000, 1.10000, 0.90000, 1.10000, 0.90000
0 / END OF BUS DATA, BEGIN LOAD DATA
1008,'LW',1, 101, 201,    18.900,     6.900,     0.000,     0.000,     0.000,     0.000, 301,1
1009,'Z0',1, 101, 201,    10.500,     2.300,     0.000,     0.000,     0.000,     0.000, 301,1
0 / END OF LOAD DATA, BEGIN FIXED SHUNT DATA
1009,'1 ', 1,     0.000,   105.300
0 / END OF FIXED SHUNT DATA, BEGIN GENERATOR DATA
1002,'1 ',    27.500,     2.000,     2.000,     2.000,1.02000,    0,    31.300,   0.00000,   0.23000,   0.00000,   0.00000,1.00000,1,  100.0,    27.500,    16.000, 301,1.0000,   0,1.0000,   0,1.0000,   0,1.0000,0, 1.0000
1009,'1 ',   -22.000,   -88.041,   250.000,  -250.000,1.03000,    0,   100.000,   0.00000,   1.00000,   0.00000,   0.00000,1.00000,1,  100.0,   250.000,  -250.000, 301,1.0000,   0,1.0000,   0,1.0000,   0,1.0000,0, 1.0000
1005,'1 ',    20.000,   -23.413,   250.000,  -250.000,1.02000,    0,   320.000,   0.00000,   0.15000,   0.00000,   0.00000,1.00000,1,  100.0,   200.000,  -200.000, 301,1.0000,   0,1.0000,   0,1.0000,   0,1.0000,0, 1.0000
0 / END OF GENERATOR DATA, BEGIN BRANCH DATA
1008,1005,'1 ',1.27800E-3,1.22940E-2,2.27080E-1,1086.00,1195.00,1086.00,  0.00000,  0.00000,  0.00000,  0.00000,1,1,  25.5, 301,1.0000,   0,1.0000,   0,1.0000,   0,1.0000
1005,1009,'1 ',4.75000E-4,4.68000E-3,8.20000E-2,1044.00,1170.00,1044.00,  0.00000,  0.00000,  0.00000,  0.00000,1,1,   9.4, 301,1.0000,   0,1.0000,   0,1.0000,   0,1.0000
0 / END OF BRANCH DATA, BEGIN TRANSFORMER DATA
1005,1002,    0,'1 ',1,1,1,0.00000E0,0.00000E0,2,'T2        ',1, 301,1.0000,   0,1.0000,   0,1.0000,   0,1.0000,'            '
  5.21000E-3,1.77370E-1, 100.00
  1.025000, 115.000,   0.000,  84.00,  84.00,  84.00,0,     0,1.500000,0.500000,1.500000,0.500000,9999, 0, 0.00000, 0.00000,  0.000
  1.000000,  13.800
0 / END OF TRANSFORMER DATA, BEGIN AREA DATA
101,    0, -1307.000,     1.000,'BEST AREA '
0 / END OF AREA DATA, BEGIN TWO-TERMINAL DC DATA
0 / END OF TWO-TERMINAL DC DATA, BEGIN VOLTAGE SOURCE CONVERTER DATA
0 / END OF VOLTAGE SOURCE CONVERTER DATA, BEGIN IMPEDANCE CORRECTION DATA
0 / END OF IMPEDANCE CORRECTION DATA, BEGIN MULTI-TERMINAL DC DATA
0 / END OF MULTI-TERMINAL DC DATA, BEGIN MULTI-SECTION LINE DATA
0 / END OF MULTI-SECTION LINE DATA, BEGIN ZONE DATA
201,'FOO      '
0 / END OF ZONE DATA, BEGIN INTER-AREA TRANSFER DATA
0 / END OF INTER-AREA TRANSFER DATA, BEGIN OWNER DATA
301,'BAR     '
0 / END OF OWNER DATA, BEGIN FACTS CONTROL DEVICE DATA
0 / END OF FACTS CONTROL DEVICE DATA, BEGIN SWITCHED SHUNT DATA
0 /END OF SWITCHED SHUNT DATA, BEGIN GNE DEVICE DATA
0 /END OF GNE DEVICE DATA
Q
